*Heading
** Job name: RealConcrete_3pb_Small-P-OutPlane Model name: 3pb_Small_P-OutPlane
** Generated by: Abaqus/CAE 6.14-2
*Preprint, echo=NO, model=NO, history=NO, contact=NO
**
** PARTS
**
*Part, name=Beam
*Node
      1,   177.100006,         63.5,           0.
      2,   177.100006,   -7.5999999,           0.
      3,   165.100006,   -7.5999999,           0.
      4,   165.100006,         63.5,           0.
      5,   177.100006,   -7.5999999,   101.599998
      6,   177.100006,         63.5,   101.599998
      7,   165.100006,         63.5,   101.599998
      8,   165.100006,   -7.5999999,   101.599998
      9,        202.5,         63.5,           0.
     10,   380.299988,         63.5,           0.
     11,   380.299988,  -38.0999985,           0.
     12,        202.5,  -38.0999985,           0.
     13,   177.100006,  -38.0999985,           0.
     14,   177.100006,  -38.0999985,   101.599998
     15,        202.5,  -38.0999985,   101.599998
     16,   380.299988,  -38.0999985,   101.599998
     17,   380.299988,         63.5,   101.599998
     18,        202.5,         63.5,   101.599998
     19,   165.100006,  -38.0999985,           0.
     20,   139.699997,  -38.0999985,           0.
** ... 3445 like lines cut
*Element, type=C3D6
 1,  30,  29,  38, 304, 303, 338
 2,   1,   4,  29,  45,  53, 303
 3,  31,  30,  37, 305, 304, 339
 4,  32,  31,  36, 306, 305, 340
 5,  33,  32,  35, 307, 306, 341
 6,   3,  33,  34,  60, 307, 342
 7,   3,   2,  33,  60,  46, 307
 8,  29,   4,  38, 303,  53, 338
 9,  30,  38,  37, 304, 338, 339
10,  31,  37,  36, 305, 339, 340
11,  32,  36,  35, 306, 340, 341
12,  33,  35,  34, 307, 341, 342
13, 304, 303, 338, 309, 308, 343
14,  45,  53, 303,  44,  54, 308
15, 305, 304, 339, 310, 309, 344
16, 306, 305, 340, 311, 310, 345
17, 307, 306, 341, 312, 311, 346
18,  60, 307, 342,  61, 312, 347
19,  60,  46, 307,  61,  47, 312
20, 303,  53, 338, 308,  54, 343
** ... 5388 like lines cut
*Element, type=S4R
5409,   21,  206, 1212,  242
5410,  206,  205, 1213, 1212
5411,  205,  204, 1214, 1213
5412,  204,  203, 1215, 1214
5413,  203,  202, 1216, 1215
5414,  202,  201, 1217, 1216
5415,  201,  200, 1218, 1217
5416,  200,  199, 1219, 1218
5417,  199,  198, 1220, 1219
5418,  198,  197, 1221, 1220
5419,  197,  196, 1222, 1221
5420,  196,  195, 1223, 1222
5421,  195,  194, 1224, 1223
5422,  194,  193, 1225, 1224
5423,  193,   20,  229, 1225
5424,  242, 1212, 1226,  241
5425, 1212, 1213, 1227, 1226
5426, 1213, 1214, 1228, 1227
5427, 1214, 1215, 1229, 1228
5428, 1215, 1216, 1230, 1229
** ... 252 like lines cut
*Nset, nset=Body, generate
    1,  3465,     1
*Elset, elset=Body, generate
    1,  5408,     1
*Nset, nset=COD
 5, 8
*Nset, nset=_Skin-3, internal
   19,   20,   21,   26,   27,   28,  192,  193,  194,  195,  196,  197,  198,  199,  200,  201
  202,  203,  204,  205,  206,  229,  230,  231,  232,  233,  234,  235,  236,  237,  238,  239
  240,  241,  242,  243,  244,  245,  246,  247,  248,  249,  286,  287,  288,  289,  290,  291
  292,  293,  294,  295,  296,  297,  298,  299,  300, 1212, 1213, 1214, 1215, 1216, 1217, 1218
 1219, 1220, 1221, 1222, 1223, 1224, 1225, 1226, 1227, 1228, 1229, 1230, 1231, 1232, 1233, 1234
 1235, 1236, 1237, 1238, 1239, 1240, 1241, 1242, 1243, 1244, 1245, 1246, 1247, 1248, 1249, 1250
 1251, 1252, 1253, 1254, 1255, 1256, 1257, 1258, 1259, 1260, 1261, 1262, 1263, 1264, 1265, 1266
 1267, 1268, 1269, 1270, 1271, 1272, 1273, 1274, 1275, 1276, 1277, 1278, 1279, 1280, 1281, 1282
 1283, 1284, 1285, 1286, 1287, 1288, 1289, 1290, 1291, 1292, 1293, 1294, 1295, 1296, 1297, 1298
 1299, 1300, 1301, 1302, 1303, 1304, 1305, 1306, 1307, 1308, 1309, 1310, 1311, 1312, 1313, 1314
 1315, 1316
*Elset, elset=_Skin-3, internal, generate
 5409,  5544,     1
*Nset, nset=_Skin-4, internal
  11,  12,  13,  14,  15,  16,  99, 100, 101, 102, 103, 104, 105, 106, 107, 108
 109, 110, 111, 112, 113, 130, 131, 132, 133, 134, 135, 136, 137, 138, 139, 140
 141, 142, 143, 144, 145, 146, 147, 148, 149, 150, 153, 154, 155, 156, 157, 158
 159, 160, 161, 162, 163, 164, 165, 166, 167, 825, 826, 827, 828, 829, 830, 831
 832, 833, 834, 835, 836, 837, 838, 839, 840, 841, 842, 843, 844, 845, 846, 847
 848, 849, 850, 851, 852, 853, 854, 855, 856, 857, 858, 859, 860, 861, 862, 863
 864, 865, 866, 867, 868, 869, 870, 871, 872, 873, 874, 875, 876, 877, 878, 879
 880, 881, 882, 883, 884, 885, 886, 887, 888, 889, 890, 891, 892, 893, 894, 895
 896, 897, 898, 899, 900, 901, 902, 903, 904, 905, 906, 907, 908, 909, 910, 911
 912, 913, 914, 915, 916, 917, 918, 919, 920, 921, 922, 923, 924, 925, 926, 927
 928, 929
*Elset, elset=_Skin-4, internal, generate
 5545,  5680,     1
*Nset, nset=_PickedSet56, internal
   11,   12,   13,   14,   15,   16,   19,   20,   21,   26,   27,   28,   99,  100,  101,  102
  103,  104,  105,  106,  107,  108,  109,  110,  111,  112,  113,  130,  131,  132,  133,  134
  135,  136,  137,  138,  139,  140,  141,  142,  143,  144,  145,  146,  147,  148,  149,  150
  153,  154,  155,  156,  157,  158,  159,  160,  161,  162,  163,  164,  165,  166,  167,  192
  193,  194,  195,  196,  197,  198,  199,  200,  201,  202,  203,  204,  205,  206,  229,  230
  231,  232,  233,  234,  235,  236,  237,  238,  239,  240,  241,  242,  243,  244,  245,  246
  247,  248,  249,  286,  287,  288,  289,  290,  291,  292,  293,  294,  295,  296,  297,  298
  299,  300,  825,  826,  827,  828,  829,  830,  831,  832,  833,  834,  835,  836,  837,  838
  839,  840,  841,  842,  843,  844,  845,  846,  847,  848,  849,  850,  851,  852,  853,  854
  855,  856,  857,  858,  859,  860,  861,  862,  863,  864,  865,  866,  867,  868,  869,  870
  871,  872,  873,  874,  875,  876,  877,  878,  879,  880,  881,  882,  883,  884,  885,  886
  887,  888,  889,  890,  891,  892,  893,  894,  895,  896,  897,  898,  899,  900,  901,  902
  903,  904,  905,  906,  907,  908,  909,  910,  911,  912,  913,  914,  915,  916,  917,  918
  919,  920,  921,  922,  923,  924,  925,  926,  927,  928,  929, 1212, 1213, 1214, 1215, 1216
 1217, 1218, 1219, 1220, 1221, 1222, 1223, 1224, 1225, 1226, 1227, 1228, 1229, 1230, 1231, 1232
 1233, 1234, 1235, 1236, 1237, 1238, 1239, 1240, 1241, 1242, 1243, 1244, 1245, 1246, 1247, 1248
 1249, 1250, 1251, 1252, 1253, 1254, 1255, 1256, 1257, 1258, 1259, 1260, 1261, 1262, 1263, 1264
 1265, 1266, 1267, 1268, 1269, 1270, 1271, 1272, 1273, 1274, 1275, 1276, 1277, 1278, 1279, 1280
 1281, 1282, 1283, 1284, 1285, 1286, 1287, 1288, 1289, 1290, 1291, 1292, 1293, 1294, 1295, 1296
 1297, 1298, 1299, 1300, 1301, 1302, 1303, 1304, 1305, 1306, 1307, 1308, 1309, 1310, 1311, 1312
 1313, 1314, 1315, 1316
*Elset, elset=_PickedSet56, internal, generate
 5409,  5680,     1
*Elset, elset=_Top_S3, internal
    2,   14,   26,   38,   50,   62,   74,   86,  102,  107,  135,  139,  153,  165,  168,  169
  177,  180,  181,  184,  185,  188,  190,  197,  435,  440,  468,  472,  486,  498,  501,  502
  510,  513,  514,  517,  518,  521,  523,  530,  768,  773,  801,  805,  819,  831,  834,  835
  843,  846,  847,  850,  851,  854,  856,  863, 1101, 1106, 1134, 1138, 1152, 1164, 1167, 1168
 1176, 1179, 1180, 1183, 1184, 1187, 1189, 1196, 1434, 1439, 1467, 1471, 1485, 1497, 1500, 1501
 1509, 1512, 1513, 1516, 1517, 1520, 1522, 1529, 1767, 1772, 1800, 1804, 1818, 1830, 1833, 1834
 1842, 1845, 1846, 1849, 1850, 1853, 1855, 1862, 2100, 2105, 2133, 2137, 2151, 2163, 2166, 2167
 2175, 2178, 2179, 2182, 2183, 2186, 2188, 2195, 2433, 2438, 2466, 2470, 2484, 2496, 2499, 2500
 2508, 2511, 2512, 2515, 2516, 2519, 2521, 2528, 2774, 2782, 2794, 2823, 2827, 2844, 2845, 2846
 2852, 2854, 2860, 2865, 2866, 2869, 2870, 2882, 3105, 3113, 3125, 3154, 3158, 3175, 3176, 3177
 3183, 3185, 3191, 3196, 3197, 3200, 3201, 3213, 3436, 3444, 3456, 3485, 3489, 3506, 3507, 3508
 3514, 3516, 3522, 3527, 3528, 3531, 3532, 3544, 3767, 3775, 3787, 3816, 3820, 3837, 3838, 3839
 3845, 3847, 3853, 3858, 3859, 3862, 3863, 3875, 4098, 4106, 4118, 4147, 4151, 4168, 4169, 4170
 4176, 4178, 4184, 4189, 4190, 4193, 4194, 4206, 4429, 4437, 4449, 4478, 4482, 4499, 4500, 4501
 4507, 4509, 4515, 4520, 4521, 4524, 4525, 4537, 4760, 4768, 4780, 4809, 4813, 4830, 4831, 4832
 4838, 4840, 4846, 4851, 4852, 4855, 4856, 4868, 5091, 5099, 5111, 5140, 5144, 5161, 5162, 5163
 5169, 5171, 5177, 5182, 5183, 5186, 5187, 5199
*Elset, elset=_Top_S4, internal
  121,  454,  787, 1120, 1453, 1786, 2119, 2452, 2809, 3140, 3471, 3802, 4133, 4464, 4795, 5126
*Surface, type=ELEMENT, name=Top
_Top_S3, S3
_Top_S4, S4
*Elset, elset=_BottomLeft_S4, internal, generate
 2787,  5104,   331
*Elset, elset=_BottomLeft_S3, internal
 2771, 2773, 2811, 2825, 2828, 2829, 2830, 2831, 2832, 2833, 2834, 2836, 2841, 2849, 2857, 2874
 3102, 3104, 3142, 3156, 3159, 3160, 3161, 3162, 3163, 3164, 3165, 3167, 3172, 3180, 3188, 3205
 3433, 3435, 3473, 3487, 3490, 3491, 3492, 3493, 3494, 3495, 3496, 3498, 3503, 3511, 3519, 3536
 3764, 3766, 3804, 3818, 3821, 3822, 3823, 3824, 3825, 3826, 3827, 3829, 3834, 3842, 3850, 3867
 4095, 4097, 4135, 4149, 4152, 4153, 4154, 4155, 4156, 4157, 4158, 4160, 4165, 4173, 4181, 4198
 4426, 4428, 4466, 4480, 4483, 4484, 4485, 4486, 4487, 4488, 4489, 4491, 4496, 4504, 4512, 4529
 4757, 4759, 4797, 4811, 4814, 4815, 4816, 4817, 4818, 4819, 4820, 4822, 4827, 4835, 4843, 4860
 5088, 5090, 5128, 5142, 5145, 5146, 5147, 5148, 5149, 5150, 5151, 5153, 5158, 5166, 5174, 5191
*Surface, type=ELEMENT, name=BottomLeft
_BottomLeft_S4, S4
_BottomLeft_S3, S3
*Elset, elset=_BottomRight_S4, internal, generate
  143,  2474,   333
*Elset, elset=_BottomRight_S3, internal
  108,  110,  112,  116,  128,  129,  133,  161,  163,  167,  170,  172,  174,  187,  195,  222
  441,  443,  445,  449,  461,  462,  466,  494,  496,  500,  503,  505,  507,  520,  528,  555
  774,  776,  778,  782,  794,  795,  799,  827,  829,  833,  836,  838,  840,  853,  861,  888
 1107, 1109, 1111, 1115, 1127, 1128, 1132, 1160, 1162, 1166, 1169, 1171, 1173, 1186, 1194, 1221
 1440, 1442, 1444, 1448, 1460, 1461, 1465, 1493, 1495, 1499, 1502, 1504, 1506, 1519, 1527, 1554
 1773, 1775, 1777, 1781, 1793, 1794, 1798, 1826, 1828, 1832, 1835, 1837, 1839, 1852, 1860, 1887
 2106, 2108, 2110, 2114, 2126, 2127, 2131, 2159, 2161, 2165, 2168, 2170, 2172, 2185, 2193, 2220
 2439, 2441, 2443, 2447, 2459, 2460, 2464, 2492, 2494, 2498, 2501, 2503, 2505, 2518, 2526, 2553
*Surface, type=ELEMENT, name=BottomRight
_BottomRight_S4, S4
_BottomRight_S3, S3
*Elset, elset=_Pressed_S4, internal, generate
  143,  2474,   333
*Elset, elset=_Pressed_S3, internal
  222,  555,  888, 1221, 1554, 1887, 2220, 2553, 2771, 2773, 3102, 3104, 3433, 3435, 3764, 3766
 4095, 4097, 4426, 4428, 4757, 4759, 5088, 5090
*Surface, type=ELEMENT, name=Pressed
_Pressed_S4, S4
_Pressed_S3, S3
*Elset, elset=_OutPlane_S2, internal
   85,   86,   87,   88,   89,   90,   91,   92,   93,   94,   95,   96, 2428, 2429, 2430, 2431
 2432, 2433, 2434, 2435, 2436, 2437, 2438, 2439, 2440, 2441, 2442, 2443, 2444, 2445, 2446, 2447
 2448, 2449, 2450, 2451, 2452, 2453, 2454, 2455, 2456, 2457, 2458, 2459, 2460, 2461, 2462, 2463
 2464, 2465, 2466, 2467, 2468, 2469, 2470, 2471, 2472, 2473, 2474, 2475, 2476, 2477, 2478, 2479
 2480, 2481, 2482, 2483, 2484, 2485, 2486, 2487, 2488, 2489, 2490, 2491, 2492, 2493, 2494, 2495
 2496, 2497, 2498, 2499, 2500, 2501, 2502, 2503, 2504, 2505, 2506, 2507, 2508, 2509, 2510, 2511
 2512, 2513, 2514, 2515, 2516, 2517, 2518, 2519, 2520, 2521, 2522, 2523, 2524, 2525, 2526, 2527
 2528, 2529, 2530, 2531, 2532, 2533, 2534, 2535, 2536, 2537, 2538, 2539, 2540, 2541, 2542, 2543
 2544, 2545, 2546, 2547, 2548, 2549, 2550, 2551, 2552, 2553, 2554, 2555, 2556, 2557, 2558, 2559
 2560, 2561, 2562, 2563, 2564, 2565, 2566, 2567, 2568, 2569, 2570, 2571, 2572, 2573, 2574, 2575
 2576, 2577, 2578, 2579, 2580, 2581, 2582, 2583, 2584, 2585, 2586, 2587, 2588, 2589, 2590, 2591
 2592, 2593, 2594, 2595, 2596, 2597, 2598, 2599, 2600, 2601, 2602, 2603, 2604, 2605, 2606, 2607
 2608, 2609, 2610, 2611, 2612, 2613, 2614, 2615, 2616, 2617, 2618, 2619, 2620, 2621, 2622, 2623
 2624, 2625, 2626, 2627, 2628, 2629, 2630, 2631, 2632, 2633, 2634, 2635, 2636, 2637, 2638, 2639
 2640, 2641, 2642, 2643, 2644, 2645, 2646, 2647, 2648, 2649, 2650, 2651, 2652, 2653, 2654, 2655
 2656, 2657, 2658, 2659, 2660, 2661, 2662, 2663, 2664, 2665, 2666, 2667, 2668, 2669, 2670, 2671
 2672, 2673, 2674, 2675, 2676, 2677, 2678, 2679, 2680, 2681, 2682, 2683, 2684, 2685, 2686, 2687
 2688, 2689, 2690, 2691, 2692, 2693, 2694, 2695, 2696, 2697, 2698, 2699, 2700, 2701, 2702, 2703
 2704, 2705, 2706, 2707, 2708, 2709, 2710, 2711, 2712, 2713, 2714, 2715, 2716, 2717, 2718, 2719
 2720, 2721, 2722, 2723, 2724, 2725, 2726, 2727, 2728, 2729, 2730, 2731, 2732, 2733, 2734, 2735
** ... 23 like lines cut
*Elset, elset=_OutPlane_S1, internal
    1,    2,    3,    4,    5,    6,    7,    8,    9,   10,   11,   12,   97,   98,   99,  100
  101,  102,  103,  104,  105,  106,  107,  108,  109,  110,  111,  112,  113,  114,  115,  116
  117,  118,  119,  120,  121,  122,  123,  124,  125,  126,  127,  128,  129,  130,  131,  132
  133,  134,  135,  136,  137,  138,  139,  140,  141,  142,  143,  144,  145,  146,  147,  148
  149,  150,  151,  152,  153,  154,  155,  156,  157,  158,  159,  160,  161,  162,  163,  164
  165,  166,  167,  168,  169,  170,  171,  172,  173,  174,  175,  176,  177,  178,  179,  180
  181,  182,  183,  184,  185,  186,  187,  188,  189,  190,  191,  192,  193,  194,  195,  196
  197,  198,  199,  200,  201,  202,  203,  204,  205,  206,  207,  208,  209,  210,  211,  212
  213,  214,  215,  216,  217,  218,  219,  220,  221,  222,  223,  224,  225,  226,  227,  228
  229,  230,  231,  232,  233,  234,  235,  236,  237,  238,  239,  240,  241,  242,  243,  244
  245,  246,  247,  248,  249,  250,  251,  252,  253,  254,  255,  256,  257,  258,  259,  260
  261,  262,  263,  264,  265,  266,  267,  268,  269,  270,  271,  272,  273,  274,  275,  276
  277,  278,  279,  280,  281,  282,  283,  284,  285,  286,  287,  288,  289,  290,  291,  292
  293,  294,  295,  296,  297,  298,  299,  300,  301,  302,  303,  304,  305,  306,  307,  308
  309,  310,  311,  312,  313,  314,  315,  316,  317,  318,  319,  320,  321,  322,  323,  324
  325,  326,  327,  328,  329,  330,  331,  332,  333,  334,  335,  336,  337,  338,  339,  340
  341,  342,  343,  344,  345,  346,  347,  348,  349,  350,  351,  352,  353,  354,  355,  356
  357,  358,  359,  360,  361,  362,  363,  364,  365,  366,  367,  368,  369,  370,  371,  372
  373,  374,  375,  376,  377,  378,  379,  380,  381,  382,  383,  384,  385,  386,  387,  388
  389,  390,  391,  392,  393,  394,  395,  396,  397,  398,  399,  400,  401,  402,  403,  404
** ... 23 like lines cut
*Surface, type=ELEMENT, name=OutPlane
_OutPlane_S2, S2
_OutPlane_S1, S1
** Section: M7
*Solid Section, elset=Body, material=M7FMATERIAL
,
** Section: PLASTIC
*Shell Section, elset=_PickedSet56, material=PLASTIC
5., 5
*End Part
**  
*Part, name=Fixture
*Node
      1,           0.,   25.3999996,           0.
      2,           0.,   25.3999996,           8.
      3,           0.,   25.3999996,          16.
      4,           0.,   25.3999996,          24.
      5,           0.,   25.3999996,          32.
      6,           0.,   25.3999996,          40.
      7,           0.,   25.3999996,          48.
      8,           0.,   25.3999996,          56.
      9,           0.,   25.3999996,          64.
     10,           0.,   25.3999996,          72.
     11,           0.,   25.3999996,          80.
     12,           0.,   25.3999996,          88.
     13,           0.,   25.3999996,          96.
     14,           0.,   25.3999996,         104.
     15,           0.,   25.3999996,         112.
     16,           0.,   25.3999996,         120.
     17,           0.,   25.3999996,         128.
     18,           0.,   25.3999996,         136.
     19,           0.,   25.3999996,         144.
     20,           0.,   25.3999996,         152.
** ... 500 like lines cut
*Element, type=C3D8R
  1, 131, 132, 158, 157,   1,   2,  28,  27
  2, 132, 133, 159, 158,   2,   3,  29,  28
  3, 133, 134, 160, 159,   3,   4,  30,  29
  4, 134, 135, 161, 160,   4,   5,  31,  30
  5, 135, 136, 162, 161,   5,   6,  32,  31
  6, 136, 137, 163, 162,   6,   7,  33,  32
  7, 137, 138, 164, 163,   7,   8,  34,  33
  8, 138, 139, 165, 164,   8,   9,  35,  34
  9, 139, 140, 166, 165,   9,  10,  36,  35
 10, 140, 141, 167, 166,  10,  11,  37,  36
 11, 141, 142, 168, 167,  11,  12,  38,  37
 12, 142, 143, 169, 168,  12,  13,  39,  38
 13, 143, 144, 170, 169,  13,  14,  40,  39
 14, 144, 145, 171, 170,  14,  15,  41,  40
 15, 145, 146, 172, 171,  15,  16,  42,  41
 16, 146, 147, 173, 172,  16,  17,  43,  42
 17, 147, 148, 174, 173,  17,  18,  44,  43
 18, 148, 149, 175, 174,  18,  19,  45,  44
 19, 149, 150, 176, 175,  19,  20,  46,  45
 20, 150, 151, 177, 176,  20,  21,  47,  46
** ... 280 like lines cut
*Node
    521,   12.6999998,   25.3999996,         200.
*Nset, nset=Fixture-RefPt_, internal
521, 
*Nset, nset=Body, generate
   1,  520,    1
*Elset, elset=Body, generate
   1,  300,    1
*Nset, nset=Fixed, generate
   1,  130,    1
*Elset, elset=Fixed, generate
   1,  100,    1
*Nset, nset=RP
 521,
*Nset, nset=Line, generate
 53,  78,   1
*Elset, elset=Line, generate
 26,  75,   1
*Elset, elset=_Contact_S1, internal, generate
 201,  300,    1
*Surface, type=ELEMENT, name=Contact
_Contact_S1, S1
** Section: STEEL
*Solid Section, elset=Body, material=STEEL
,
*End Part
**  
*Part, name=Support
*Node
      1,    23.776413,   7.72542477,           0.
      2,   20.2254257,   14.6946316,           0.
      3,   14.6946316,   20.2254257,           0.
      4,   7.72542477,    23.776413,           0.
      5,           0.,          25.,           0.
      6,  -7.72542477,    23.776413,           0.
      7,  -14.6946316,   20.2254257,           0.
      8,  -20.2254257,   14.6946316,           0.
      9,   -23.776413,   7.72542477,           0.
     10,          25.,           0.,           0.
     11,         -25.,           0.,           0.
     12,    16.666666,           0.,           0.
     13,   8.33333302,           0.,           0.
     14,           0.,           0.,           0.
     15,  -8.33333302,           0.,           0.
     16,   -16.666666,           0.,           0.
     17,   11.7373667,   17.2375393,           0.
     18,  -10.2948618,   13.4027014,           0.
     19,   13.1985102,   12.7551346,           0.
     20,  -2.76508522,   15.3113146,           0.
** ... 560 like lines cut
*Element, type=C3D8R
  1,  25,  12,  10,   1,  54,  41,  39,  30
  2,  26,  23,  20,  18,  55,  52,  49,  47
  3,   7,  18,  20,   6,  36,  47,  49,  35
  4,  19,  17,  27,  21,  48,  46,  56,  50
  5,  24,  21,  20,  23,  53,  50,  49,  52
  6,  13,  24,  23,  14,  42,  53,  52,  43
  7,   2,   3,  17,  19,  31,  32,  46,  48
  8,  21,  24,  25,  19,  50,  53,  54,  48
  9,   1,   2,  19,  25,  30,  31,  48,  54
 10,  29,  16,  15,  26,  58,  45,  44,  55
 11,   8,  22,  18,   7,  37,  51,  47,  36
 12,  18,  22,  29,  26,  47,  51,  58,  55
 13,  11,  16,  29,   9,  40,  45,  58,  38
 14,  27,  17,   3,   4,  56,  46,  32,  33
 15,  20,  28,   5,   6,  49,  57,  34,  35
 16,  12,  25,  24,  13,  41,  54,  53,  42
 17,  27,  28,  20,  21,  56,  57,  49,  50
 18,   5,  28,  27,   4,  34,  57,  56,  33
 19,  26,  15,  14,  23,  55,  44,  43,  52
 20,  22,   8,   9,  29,  51,  37,  38,  58
** ... 360 like lines cut
*Nset, nset=Body, generate
   1,  580,    1
*Elset, elset=Body, generate
   1,  380,    1
*Nset, nset=Fixed
  10,  11,  12,  13,  14,  15,  16,  39,  40,  41,  42,  43,  44,  45,  68,  69
  70,  71,  72,  73,  74,  97,  98,  99, 100, 101, 102, 103, 126, 127, 128, 129
 130, 131, 132, 155, 156, 157, 158, 159, 160, 161, 184, 185, 186, 187, 188, 189
 190, 213, 214, 215, 216, 217, 218, 219, 242, 243, 244, 245, 246, 247, 248, 271
 272, 273, 274, 275, 276, 277, 300, 301, 302, 303, 304, 305, 306, 329, 330, 331
 332, 333, 334, 335, 358, 359, 360, 361, 362, 363, 364, 387, 388, 389, 390, 391
 392, 393, 416, 417, 418, 419, 420, 421, 422, 445, 446, 447, 448, 449, 450, 451
 474, 475, 476, 477, 478, 479, 480, 503, 504, 505, 506, 507, 508, 509, 532, 533
 534, 535, 536, 537, 538, 561, 562, 563, 564, 565, 566, 567
*Elset, elset=Fixed
   1,   6,  10,  13,  16,  19,  21,  26,  30,  33,  36,  39,  41,  46,  50,  53
  56,  59,  61,  66,  70,  73,  76,  79,  81,  86,  90,  93,  96,  99, 101, 106
 110, 113, 116, 119, 121, 126, 130, 133, 136, 139, 141, 146, 150, 153, 156, 159
 161, 166, 170, 173, 176, 179, 181, 186, 190, 193, 196, 199, 201, 206, 210, 213
 216, 219, 221, 226, 230, 233, 236, 239, 241, 246, 250, 253, 256, 259, 261, 266
 270, 273, 276, 279, 281, 286, 290, 293, 296, 299, 301, 306, 310, 313, 316, 319
 321, 326, 330, 333, 336, 339, 341, 346, 350, 353, 356, 359, 361, 366, 370, 373
 376, 379
*Elset, elset=_Contact_S5, internal
   1,  14,  15,  21,  34,  35,  41,  54,  55,  61,  74,  75,  81,  94,  95, 101
 114, 115, 121, 134, 135, 141, 154, 155, 161, 174, 175, 181, 194, 195, 201, 214
 215, 221, 234, 235, 241, 254, 255, 261, 274, 275, 281, 294, 295, 301, 314, 315
 321, 334, 335, 341, 354, 355, 361, 374, 375
*Elset, elset=_Contact_S6, internal
   3,  11,  13,  18,  23,  31,  33,  38,  43,  51,  53,  58,  63,  71,  73,  78
  83,  91,  93,  98, 103, 111, 113, 118, 123, 131, 133, 138, 143, 151, 153, 158
 163, 171, 173, 178, 183, 191, 193, 198, 203, 211, 213, 218, 223, 231, 233, 238
 243, 251, 253, 258, 263, 271, 273, 278, 283, 291, 293, 298, 303, 311, 313, 318
 323, 331, 333, 338, 343, 351, 353, 358, 363, 371, 373, 378
*Elset, elset=_Contact_S3, internal
   7,   9,  27,  29,  47,  49,  67,  69,  87,  89, 107, 109, 127, 129, 147, 149
 167, 169, 187, 189, 207, 209, 227, 229, 247, 249, 267, 269, 287, 289, 307, 309
 327, 329, 347, 349, 367, 369
*Elset, elset=_Contact_S4, internal, generate
  20,  380,   20
*Surface, type=ELEMENT, name=Contact
_Contact_S5, S5
_Contact_S6, S6
_Contact_S4, S4
_Contact_S3, S3
** Section: STEEL
*Solid Section, elset=Body, material=STEEL
,
*End Part
**  
**
** ASSEMBLY
**
*Assembly, name=Assembly
**  
*Instance, name=Beam-1, part=Beam
*End Instance
**  
*Instance, name=Fixture-1, part=Fixture
       139.7,         63.5,        -45.4
*End Instance
**  
*Instance, name=Fixture-2, part=Fixture
       177.1,         63.5,        -45.4
*End Instance
**  
*Instance, name=Support-1, part=Support
       -19.4,        -63.2,        -23.4
*End Instance
**  
*Instance, name=Support-2, part=Support
       361.6,        -63.2,        -23.4
*End Instance
**  
** Constraint: Constraint-1
*Equation
2
Fixture-1.Line, 1, 1.
Fixture-1.RP, 1, -1.
** Constraint: Constraint-2
*Equation
2
Fixture-1.Line, 2, 1.
Fixture-1.RP, 2, -1.
** Constraint: Constraint-3
*Equation
2
Fixture-1.Line, 3, 1.
Fixture-1.RP, 3, -1.
** Constraint: Constraint-4
*Equation
2
Fixture-2.Line, 1, 1.
Fixture-2.RP, 1, -1.
** Constraint: Constraint-5
*Equation
2
Fixture-2.Line, 2, 1.
Fixture-2.RP, 2, -1.
** Constraint: Constraint-6
*Equation
2
Fixture-2.Line, 3, 1.
Fixture-2.RP, 3, -1.
*End Assembly
*Amplitude, name=Amp-1, definition=SMOOTH STEP
             0.,              0.,            0.15,              1.
*Amplitude, name=Amp-2, definition=SMOOTH STEP
             0.,              0.,            0.03,              1.
** 
** MATERIALS
** 
*Material, name=M7FMATERIAL
*Density
 2.4e-09,
*Depvar, delete=188
    199,
*User Material, constants=1
0.,
*Material, name=PLASTIC
*Density
 2.5e-09,
*Elastic
20000., 0.3
*Material, name=STEEL
*Density
 7.5e-09,
*Elastic
50000., 0.3
** 
** INTERACTION PROPERTIES
** 
*Surface Interaction, name=IntProp-1
*Friction
 0.05,
*Surface Behavior, pressure-overclosure=HARD
** 
** BOUNDARY CONDITIONS
** 
** Name: BC-1 Type: Displacement/Rotation
*Boundary
Support-1.Fixed, 1, 1
Support-1.Fixed, 2, 2
Support-1.Fixed, 3, 3
Support-1.Fixed, 4, 4
Support-1.Fixed, 5, 5
Support-1.Fixed, 6, 6
** Name: BC-2 Type: Displacement/Rotation
*Boundary
Support-2.Fixed, 1, 1
Support-2.Fixed, 2, 2
Support-2.Fixed, 3, 3
Support-2.Fixed, 4, 4
Support-2.Fixed, 5, 5
Support-2.Fixed, 6, 6
** ----------------------------------------------------------------
** 
** STEP: Step-1
** 
*Step, name=Step-1, nlgeom=NO
*Dynamic, Explicit
, 0.03
*Bulk Viscosity
2.4, 24.
** 
** BOUNDARY CONDITIONS
** 
** Name: BC-3 Type: Displacement/Rotation
*Boundary, amplitude=Amp-1
Fixture-1.RP, 1, 1
Fixture-1.RP, 2, 2
Fixture-1.RP, 3, 3
Fixture-1.RP, 4, 4
Fixture-1.RP, 5, 5
Fixture-1.RP, 6, 6
** Name: BC-4 Type: Displacement/Rotation
*Boundary, amplitude=Amp-1
Fixture-2.RP, 1, 1
Fixture-2.RP, 2, 2
Fixture-2.RP, 3, 3
Fixture-2.RP, 4, 4
Fixture-2.RP, 5, 5
Fixture-2.RP, 6, 6
** 
** LOADS
** 
** Name: Load-1   Type: Pressure
*Dsload, amplitude=Amp-2
Beam-1.Pressed, P, 11.1001
** Name: Load-2   Type: Pressure Using Field: AnalyticalField-1
*Dload, amplitude=Amp-2
Beam-1.2428, P2, 0.0001
Beam-1.2429, P2, 0.0001
Beam-1.2430, P2, 0.0001
Beam-1.2431, P2, 1.71003e-05
Beam-1.2432, P2, 3.46038e-07
Beam-1.2433, P2, 0.0001
Beam-1.2434, P2, 0.0001
Beam-1.2435, P2, 0.0001
Beam-1.2436, P2, 0.0001
Beam-1.2437, P2, 0.0001
Beam-1.2438, P2, 0.0001
Beam-1.2439, P2, 5.89152e-06
Beam-1.2440, P2, 3.47363e-07
Beam-1.2441, P2, 1.97208e-07
Beam-1.2442, P2, 1.20355e-09
Beam-1.2443, P2, 6.59849e-09
Beam-1.2444, P2, 3.8868e-10
Beam-1.2445, P2, 3.88349e-10
Beam-1.2446, P2, 3.87027e-10
Beam-1.2447, P2, 2.1715e-11
** ... 1332 like lines cut
** 
** INTERACTIONS
** 
** Interaction: Int-1
*Contact Pair, interaction=IntProp-1, mechanical constraint=KINEMATIC, cpset=Int-1
Fixture-1.Contact, Beam-1.Top
** Interaction: Int-2
*Contact Pair, interaction=IntProp-1, mechanical constraint=KINEMATIC, cpset=Int-2
Fixture-2.Contact, Beam-1.Top
** Interaction: Int-3
*Contact Pair, interaction=IntProp-1, mechanical constraint=KINEMATIC, cpset=Int-3
Support-1.Contact, Beam-1.BottomLeft
** Interaction: Int-4
*Contact Pair, interaction=IntProp-1, mechanical constraint=KINEMATIC, cpset=Int-4
Support-2.Contact, Beam-1.BottomRight
** 
** OUTPUT REQUESTS
** 
*Restart, write, number interval=1, time marks=NO
** 
** FIELD OUTPUT: F-Output-1
** 
*Output, field, number interval=30
*Node Output
A, RF, U, V
*Element Output, directions=YES
EVF, LE, PE, PEEQ, S
*Contact Output
CSTRESS, 
** 
** HISTORY OUTPUT: H-Output-1
** 
*Output, history
*Energy Output
ALLIE, ALLKE, ETOTAL
*End Step
** ----------------------------------------------------------------
** 
** STEP: Step-2
** 
*Step, name=Step-2, nlgeom=NO
*Dynamic, Explicit
, 0.15
*Bulk Viscosity
2.4, 24.
** 
** BOUNDARY CONDITIONS
** 
** Name: BC-3 Type: Displacement/Rotation
*Boundary, amplitude=Amp-1
Fixture-1.RP, 2, 2, -15.
** Name: BC-4 Type: Displacement/Rotation
*Boundary, amplitude=Amp-1
Fixture-2.RP, 2, 2, -15.
** 
** OUTPUT REQUESTS
** 
*Restart, write, number interval=1, time marks=NO
** 
** FIELD OUTPUT: F-Output-1
** 
*Output, field, number interval=200
*Node Output
A, RF, U, V
*Element Output, directions=YES
EVF, LE, PE, PEEQ, S
*Contact Output
CSTRESS, 
** 
** HISTORY OUTPUT: H-Output-1
** 
*Output, history
*Energy Output
ALLIE, ALLKE, ETOTAL
** 
** HISTORY OUTPUT: H-Output-3
** 
*Node Output, nset=Beam-1.COD
U1, 
** 
** HISTORY OUTPUT: H-Output-2
** 
*Node Output, nset=Fixture-1.RP
RF2, U2
** 
** HISTORY OUTPUT: H-Output-4
** 
*Node Output, nset=Fixture-2.RP
RF2, U2
*End Step
