*Heading
** Job name: RealConcrete_3pb_Medium-P-OutPlane Model name: 3pb_Medium_P-OutPlane
** Generated by: Abaqus/CAE 6.14-2
*Preprint, echo=NO, model=NO, history=NO, contact=NO
**
** PARTS
**
*Part, name=Beam
*Node
      1,   380.299988,   165.100006,           0.
      2,   380.299988,   22.8999996,           0.
      3,   368.299988,   22.8999996,           0.
      4,   368.299988,   165.100006,           0.
      5,   380.299988,   22.8999996,   101.599998
      6,   380.299988,   165.100006,   101.599998
      7,   368.299988,   165.100006,   101.599998
      8,   368.299988,   22.8999996,   101.599998
      9,   431.100006,   165.100006,           0.
     10,   786.700012,   165.100006,           0.
     11,   786.700012,  -38.0999985,           0.
     12,   431.100006,  -38.0999985,           0.
     13,   380.299988,  -38.0999985,           0.
     14,   380.299988,  -38.0999985,   101.599998
     15,   431.100006,  -38.0999985,   101.599998
     16,   786.700012,  -38.0999985,   101.599998
     17,   786.700012,   165.100006,   101.599998
     18,   431.100006,   165.100006,   101.599998
     19,   368.299988,  -38.0999985,           0.
     20,        317.5,  -38.0999985,           0.
** ... 13057 like lines cut
*Element, type=C3D6
  1,  30,  29,  50, 508, 507, 584
  2,   1,   4,  29,  57,  65, 507
  3,  31,  30,  49, 509, 508, 585
  4,  32,  31,  48, 510, 509, 586
  5,  33,  32,  47, 511, 510, 587
  6,  34,  33,  46, 512, 511, 588
  7,  35,  34,  45, 513, 512, 589
  8,  36,  35,  44, 514, 513, 590
  9,  37,  36,  43, 515, 514, 591
 10,  38,  37,  42, 516, 515, 592
 11,  39,  38,  41, 517, 516, 593
 12,   3,  39,  40,  72, 517, 594
 13,   3,   2,  39,  72,  58, 517
 14,  29,   4,  50, 507,  65, 584
 15,  30,  50,  49, 508, 584, 585
 16,  31,  49,  48, 509, 585, 586
 17,  32,  48,  47, 510, 586, 587
 18,  33,  47,  46, 511, 587, 588
 19,  34,  46,  45, 512, 588, 589
 20,  35,  45,  44, 513, 589, 590
** ... 21756 like lines cut
*Element, type=S4R
21777,   20,  310, 4111,  422
21778,  310,  309, 4112, 4111
21779,  309,  308, 4113, 4112
21780,  308,   19,  408, 4113
21781,  422, 4111, 4114,  421
21782, 4111, 4112, 4115, 4114
21783, 4112, 4113, 4116, 4115
21784, 4113,  408,  407, 4116
21785,  421, 4114, 4117,  420
21786, 4114, 4115, 4118, 4117
21787, 4115, 4116, 4119, 4118
21788, 4116,  407,  406, 4119
21789,  420, 4117, 4120,  419
21790, 4117, 4118, 4121, 4120
21791, 4118, 4119, 4122, 4121
21792, 4119,  406,  405, 4122
21793,  419, 4120, 4123,  418
21794, 4120, 4121, 4124, 4123
21795, 4121, 4122, 4125, 4124
21796, 4122,  405,  404, 4125
** ... 524 like lines cut
*Nset, nset=Body, generate
     1,  13077,      1
*Elset, elset=Body, generate
     1,  21776,      1
*Nset, nset=COD
 5, 8
*Nset, nset=_Skin-3, internal
   19,   20,   21,   26,   27,   28,  308,  309,  310,  311,  312,  313,  314,  315,  316,  317
  318,  319,  320,  321,  322,  323,  324,  325,  326,  327,  328,  329,  330,  331,  332,  333
  334,  335,  336,  337,  338,  339,  402,  403,  404,  405,  406,  407,  408,  409,  410,  411
  412,  413,  414,  415,  416,  417,  418,  419,  420,  421,  422,  471,  472,  473,  474,  475
  476,  477,  478,  479,  480,  481,  482,  483,  484,  485,  486,  487,  488,  489,  490,  491
  492,  493,  494,  495,  496,  497,  498,  499,  500,  501,  502, 4111, 4112, 4113, 4114, 4115
 4116, 4117, 4118, 4119, 4120, 4121, 4122, 4123, 4124, 4125, 4126, 4127, 4128, 4129, 4130, 4131
 4132, 4133, 4134, 4135, 4136, 4137, 4138, 4139, 4140, 4141, 4142, 4143, 4144, 4145, 4146, 4147
 4148, 4149, 4150, 4151, 4152, 4153, 4154, 4155, 4156, 4157, 4158, 4159, 4160, 4161, 4162, 4163
 4164, 4165, 4166, 4167, 4168, 4169, 4170, 4171, 4172, 4173, 4174, 4175, 4176, 4177, 4178, 4179
 4180, 4181, 4182, 4183, 4184, 4185, 4186, 4187, 4188, 4189, 4190, 4191, 4192, 4193, 4194, 4195
 4196, 4197, 4198, 4199, 4200, 4201, 4202, 4203, 4204, 4205, 4206, 4207, 4208, 4209, 4210, 4211
 4212, 4213, 4214, 4215, 4216, 4217, 4218, 4219, 4220, 4221, 4222, 4223, 4224, 4225, 4226, 4227
 4228, 4229, 4230, 4231, 4232, 4233, 4234, 4235, 4236, 4237, 4238, 4239, 4240, 4241, 4242, 4243
 4244, 4245, 4246, 4247, 4248, 4249, 4250, 4251, 4252, 4253, 4254, 4255, 4256, 4257, 4258, 4259
 4260, 4261, 4262, 4263, 4264, 4265, 4266, 4267, 4268, 4269, 4270, 4271, 4272, 4273, 4274, 4275
 4276, 4277, 4278, 4279, 4280, 4281, 4282, 4283, 4284, 4285, 4286, 4287, 4288, 4289, 4290, 4291
 4292, 4293, 4294, 4295, 4296, 4297, 4298, 4299, 4300, 4301, 4302, 4303, 4304, 4305, 4306, 4307
 4308, 4309, 4310, 4311, 4312, 4313, 4314, 4315, 4316, 4317, 4318, 4319, 4320, 4321, 4322, 4323
 4324, 4325, 4326, 4327, 4328, 4329, 4330, 4331, 4332, 4333, 4334
*Elset, elset=_Skin-3, internal, generate
 21777,  22048,      1
*Nset, nset=_Skin-4, internal
   11,   12,   13,   14,   15,   16,  149,  150,  151,  152,  153,  154,  155,  156,  157,  158
  159,  160,  161,  162,  163,  164,  165,  166,  167,  168,  169,  170,  171,  172,  173,  174
  175,  176,  177,  178,  179,  180,  199,  200,  201,  202,  203,  204,  205,  206,  207,  208
  209,  210,  211,  212,  213,  214,  215,  216,  217,  218,  219,  224,  225,  226,  227,  228
  229,  230,  231,  232,  233,  234,  235,  236,  237,  238,  239,  240,  241,  242,  243,  244
  245,  246,  247,  248,  249,  250,  251,  252,  253,  254,  255, 2247, 2248, 2249, 2250, 2251
 2252, 2253, 2254, 2255, 2256, 2257, 2258, 2259, 2260, 2261, 2262, 2263, 2264, 2265, 2266, 2267
 2268, 2269, 2270, 2271, 2272, 2273, 2274, 2275, 2276, 2277, 2278, 2279, 2280, 2281, 2282, 2283
 2284, 2285, 2286, 2287, 2288, 2289, 2290, 2291, 2292, 2293, 2294, 2295, 2296, 2297, 2298, 2299
 2300, 2301, 2302, 2303, 2304, 2305, 2306, 2307, 2308, 2309, 2310, 2311, 2312, 2313, 2314, 2315
 2316, 2317, 2318, 2319, 2320, 2321, 2322, 2323, 2324, 2325, 2326, 2327, 2328, 2329, 2330, 2331
 2332, 2333, 2334, 2335, 2336, 2337, 2338, 2339, 2340, 2341, 2342, 2343, 2344, 2345, 2346, 2347
 2348, 2349, 2350, 2351, 2352, 2353, 2354, 2355, 2356, 2357, 2358, 2359, 2360, 2361, 2362, 2363
 2364, 2365, 2366, 2367, 2368, 2369, 2370, 2371, 2372, 2373, 2374, 2375, 2376, 2377, 2378, 2379
 2380, 2381, 2382, 2383, 2384, 2385, 2386, 2387, 2388, 2389, 2390, 2391, 2392, 2393, 2394, 2395
 2396, 2397, 2398, 2399, 2400, 2401, 2402, 2403, 2404, 2405, 2406, 2407, 2408, 2409, 2410, 2411
 2412, 2413, 2414, 2415, 2416, 2417, 2418, 2419, 2420, 2421, 2422, 2423, 2424, 2425, 2426, 2427
 2428, 2429, 2430, 2431, 2432, 2433, 2434, 2435, 2436, 2437, 2438, 2439, 2440, 2441, 2442, 2443
 2444, 2445, 2446, 2447, 2448, 2449, 2450, 2451, 2452, 2453, 2454, 2455, 2456, 2457, 2458, 2459
 2460, 2461, 2462, 2463, 2464, 2465, 2466, 2467, 2468, 2469, 2470
*Elset, elset=_Skin-4, internal, generate
 22049,  22320,      1
*Nset, nset=_PickedSet56, internal
   11,   12,   13,   14,   15,   16,   19,   20,   21,   26,   27,   28,  149,  150,  151,  152
  153,  154,  155,  156,  157,  158,  159,  160,  161,  162,  163,  164,  165,  166,  167,  168
  169,  170,  171,  172,  173,  174,  175,  176,  177,  178,  179,  180,  199,  200,  201,  202
  203,  204,  205,  206,  207,  208,  209,  210,  211,  212,  213,  214,  215,  216,  217,  218
  219,  224,  225,  226,  227,  228,  229,  230,  231,  232,  233,  234,  235,  236,  237,  238
  239,  240,  241,  242,  243,  244,  245,  246,  247,  248,  249,  250,  251,  252,  253,  254
  255,  308,  309,  310,  311,  312,  313,  314,  315,  316,  317,  318,  319,  320,  321,  322
  323,  324,  325,  326,  327,  328,  329,  330,  331,  332,  333,  334,  335,  336,  337,  338
  339,  402,  403,  404,  405,  406,  407,  408,  409,  410,  411,  412,  413,  414,  415,  416
  417,  418,  419,  420,  421,  422,  471,  472,  473,  474,  475,  476,  477,  478,  479,  480
  481,  482,  483,  484,  485,  486,  487,  488,  489,  490,  491,  492,  493,  494,  495,  496
  497,  498,  499,  500,  501,  502, 2247, 2248, 2249, 2250, 2251, 2252, 2253, 2254, 2255, 2256
 2257, 2258, 2259, 2260, 2261, 2262, 2263, 2264, 2265, 2266, 2267, 2268, 2269, 2270, 2271, 2272
 2273, 2274, 2275, 2276, 2277, 2278, 2279, 2280, 2281, 2282, 2283, 2284, 2285, 2286, 2287, 2288
 2289, 2290, 2291, 2292, 2293, 2294, 2295, 2296, 2297, 2298, 2299, 2300, 2301, 2302, 2303, 2304
 2305, 2306, 2307, 2308, 2309, 2310, 2311, 2312, 2313, 2314, 2315, 2316, 2317, 2318, 2319, 2320
 2321, 2322, 2323, 2324, 2325, 2326, 2327, 2328, 2329, 2330, 2331, 2332, 2333, 2334, 2335, 2336
 2337, 2338, 2339, 2340, 2341, 2342, 2343, 2344, 2345, 2346, 2347, 2348, 2349, 2350, 2351, 2352
 2353, 2354, 2355, 2356, 2357, 2358, 2359, 2360, 2361, 2362, 2363, 2364, 2365, 2366, 2367, 2368
 2369, 2370, 2371, 2372, 2373, 2374, 2375, 2376, 2377, 2378, 2379, 2380, 2381, 2382, 2383, 2384
** ... 20 like lines cut
*Elset, elset=_PickedSet56, internal, generate
 21777,  22320,      1
*Elset, elset=_Top_S3, internal
     2,    26,    50,    74,    98,   122,   146,   170,   198,   209,   210,   218,   260,   272,   276,   297
   315,   326,   327,   329,   331,   333,   334,   337,   338,   341,   342,   345,   346,   349,   350,   351
   353,   357,   359,   361,   363,   365,   367,   390,   444,  1548,  1559,  1560,  1568,  1610,  1622,  1626
  1647,  1665,  1676,  1677,  1679,  1681,  1683,  1684,  1687,  1688,  1691,  1692,  1695,  1696,  1699,  1700
  1701,  1703,  1707,  1709,  1711,  1713,  1715,  1717,  1740,  1794,  2898,  2909,  2910,  2918,  2960,  2972
  2976,  2997,  3015,  3026,  3027,  3029,  3031,  3033,  3034,  3037,  3038,  3041,  3042,  3045,  3046,  3049
  3050,  3051,  3053,  3057,  3059,  3061,  3063,  3065,  3067,  3090,  3144,  4248,  4259,  4260,  4268,  4310
  4322,  4326,  4347,  4365,  4376,  4377,  4379,  4381,  4383,  4384,  4387,  4388,  4391,  4392,  4395,  4396
  4399,  4400,  4401,  4403,  4407,  4409,  4411,  4413,  4415,  4417,  4440,  4494,  5598,  5609,  5610,  5618
  5660,  5672,  5676,  5697,  5715,  5726,  5727,  5729,  5731,  5733,  5734,  5737,  5738,  5741,  5742,  5745
  5746,  5749,  5750,  5751,  5753,  5757,  5759,  5761,  5763,  5765,  5767,  5790,  5844,  6948,  6959,  6960
  6968,  7010,  7022,  7026,  7047,  7065,  7076,  7077,  7079,  7081,  7083,  7084,  7087,  7088,  7091,  7092
  7095,  7096,  7099,  7100,  7101,  7103,  7107,  7109,  7111,  7113,  7115,  7117,  7140,  7194,  8298,  8309
  8310,  8318,  8360,  8372,  8376,  8397,  8415,  8426,  8427,  8429,  8431,  8433,  8434,  8437,  8438,  8441
  8442,  8445,  8446,  8449,  8450,  8451,  8453,  8457,  8459,  8461,  8463,  8465,  8467,  8490,  8544,  9648
  9659,  9660,  9668,  9710,  9722,  9726,  9747,  9765,  9776,  9777,  9779,  9781,  9783,  9784,  9787,  9788
  9791,  9792,  9795,  9796,  9799,  9800,  9801,  9803,  9807,  9809,  9811,  9813,  9815,  9817,  9840,  9894
 11019, 11021, 11023, 11025, 11030, 11060, 11084, 11114, 11118, 11122, 11126, 11131, 11139, 11147, 11155, 11160
 11161, 11164, 11166, 11168, 11170, 11172, 11173, 11177, 11207, 11213, 11215, 11217, 11219, 11221, 11223, 11239
 11240, 12367, 12369, 12371, 12373, 12378, 12408, 12432, 12462, 12466, 12470, 12474, 12479, 12487, 12495, 12503
** ... 14 like lines cut
*Elset, elset=_Top_S4, internal
   240,  1590,  2940,  4290,  5640,  6990,  8340,  9690, 11092, 12440, 13788, 15136, 16484, 17832, 19180, 20528
*Surface, type=ELEMENT, name=Top
_Top_S3, S3
_Top_S4, S4
*Elset, elset=_BottomLeft_S3, internal
 11009, 11016, 11068, 11072, 11076, 11108, 11109, 11112, 11115, 11116, 11119, 11120, 11123, 11124, 11127, 11128
 11129, 11158, 11162, 11182, 11185, 11186, 11187, 11189, 11191, 11193, 11195, 11197, 11199, 11201, 11235, 11236
 11241, 12357, 12364, 12416, 12420, 12424, 12456, 12457, 12460, 12463, 12464, 12467, 12468, 12471, 12472, 12475
 12476, 12477, 12506, 12510, 12530, 12533, 12534, 12535, 12537, 12539, 12541, 12543, 12545, 12547, 12549, 12583
 12584, 12589, 13705, 13712, 13764, 13768, 13772, 13804, 13805, 13808, 13811, 13812, 13815, 13816, 13819, 13820
 13823, 13824, 13825, 13854, 13858, 13878, 13881, 13882, 13883, 13885, 13887, 13889, 13891, 13893, 13895, 13897
 13931, 13932, 13937, 15053, 15060, 15112, 15116, 15120, 15152, 15153, 15156, 15159, 15160, 15163, 15164, 15167
 15168, 15171, 15172, 15173, 15202, 15206, 15226, 15229, 15230, 15231, 15233, 15235, 15237, 15239, 15241, 15243
 15245, 15279, 15280, 15285, 16401, 16408, 16460, 16464, 16468, 16500, 16501, 16504, 16507, 16508, 16511, 16512
 16515, 16516, 16519, 16520, 16521, 16550, 16554, 16574, 16577, 16578, 16579, 16581, 16583, 16585, 16587, 16589
 16591, 16593, 16627, 16628, 16633, 17749, 17756, 17808, 17812, 17816, 17848, 17849, 17852, 17855, 17856, 17859
 17860, 17863, 17864, 17867, 17868, 17869, 17898, 17902, 17922, 17925, 17926, 17927, 17929, 17931, 17933, 17935
 17937, 17939, 17941, 17975, 17976, 17981, 19097, 19104, 19156, 19160, 19164, 19196, 19197, 19200, 19203, 19204
 19207, 19208, 19211, 19212, 19215, 19216, 19217, 19246, 19250, 19270, 19273, 19274, 19275, 19277, 19279, 19281
 19283, 19285, 19287, 19289, 19323, 19324, 19329, 20445, 20452, 20504, 20508, 20512, 20544, 20545, 20548, 20551
 20552, 20555, 20556, 20559, 20560, 20563, 20564, 20565, 20594, 20598, 20618, 20621, 20622, 20623, 20625, 20627
 20629, 20631, 20633, 20635, 20637, 20671, 20672, 20677
*Elset, elset=_BottomLeft_S4, internal, generate
 11044,  20480,   1348
*Surface, type=ELEMENT, name=BottomLeft
_BottomLeft_S3, S3
_BottomLeft_S4, S4
*Elset, elset=_BottomRight_S3, internal
  215,  217,  223,  226,  256,  257,  261,  265,  266,  269,  285,  313,  318,  320,  322,  324
  336,  344,  348,  356,  372,  374,  376,  407,  414,  415,  417,  419,  421,  423,  427,  446
  447, 1565, 1567, 1573, 1576, 1606, 1607, 1611, 1615, 1616, 1619, 1635, 1663, 1668, 1670, 1672
 1674, 1686, 1694, 1698, 1706, 1722, 1724, 1726, 1757, 1764, 1765, 1767, 1769, 1771, 1773, 1777
 1796, 1797, 2915, 2917, 2923, 2926, 2956, 2957, 2961, 2965, 2966, 2969, 2985, 3013, 3018, 3020
 3022, 3024, 3036, 3044, 3048, 3056, 3072, 3074, 3076, 3107, 3114, 3115, 3117, 3119, 3121, 3123
 3127, 3146, 3147, 4265, 4267, 4273, 4276, 4306, 4307, 4311, 4315, 4316, 4319, 4335, 4363, 4368
 4370, 4372, 4374, 4386, 4394, 4398, 4406, 4422, 4424, 4426, 4457, 4464, 4465, 4467, 4469, 4471
 4473, 4477, 4496, 4497, 5615, 5617, 5623, 5626, 5656, 5657, 5661, 5665, 5666, 5669, 5685, 5713
 5718, 5720, 5722, 5724, 5736, 5744, 5748, 5756, 5772, 5774, 5776, 5807, 5814, 5815, 5817, 5819
 5821, 5823, 5827, 5846, 5847, 6965, 6967, 6973, 6976, 7006, 7007, 7011, 7015, 7016, 7019, 7035
 7063, 7068, 7070, 7072, 7074, 7086, 7094, 7098, 7106, 7122, 7124, 7126, 7157, 7164, 7165, 7167
 7169, 7171, 7173, 7177, 7196, 7197, 8315, 8317, 8323, 8326, 8356, 8357, 8361, 8365, 8366, 8369
 8385, 8413, 8418, 8420, 8422, 8424, 8436, 8444, 8448, 8456, 8472, 8474, 8476, 8507, 8514, 8515
 8517, 8519, 8521, 8523, 8527, 8546, 8547, 9665, 9667, 9673, 9676, 9706, 9707, 9711, 9715, 9716
 9719, 9735, 9763, 9768, 9770, 9772, 9774, 9786, 9794, 9798, 9806, 9822, 9824, 9826, 9857, 9864
 9865, 9867, 9869, 9871, 9873, 9877, 9896, 9897
*Elset, elset=_BottomRight_S4, internal, generate
  288,  9738,  1350
*Surface, type=ELEMENT, name=BottomRight
_BottomRight_S3, S3
_BottomRight_S4, S4
*Elset, elset=_Pressed_S3, internal
   313,   446,   447,  1663,  1796,  1797,  3013,  3146,  3147,  4363,  4496,  4497,  5713,  5846,  5847,  7063
  7196,  7197,  8413,  8546,  8547,  9763,  9896,  9897, 11009, 11235, 11236, 11241, 12357, 12583, 12584, 12589
 13705, 13931, 13932, 13937, 15053, 15279, 15280, 15285, 16401, 16627, 16628, 16633, 17749, 17975, 17976, 17981
 19097, 19323, 19324, 19329, 20445, 20671, 20672, 20677
*Elset, elset=_Pressed_S4, internal, generate
  288,  9738,  1350
*Surface, type=ELEMENT, name=Pressed
_Pressed_S3, S3
_Pressed_S4, S4
*Elset, elset=_OutPlane_S2, internal
  9643,  9644,  9645,  9646,  9647,  9648,  9649,  9650,  9651,  9652,  9653,  9654,  9655,  9656,  9657,  9658
  9659,  9660,  9661,  9662,  9663,  9664,  9665,  9666,  9667,  9668,  9669,  9670,  9671,  9672,  9673,  9674
  9675,  9676,  9677,  9678,  9679,  9680,  9681,  9682,  9683,  9684,  9685,  9686,  9687,  9688,  9689,  9690
  9691,  9692,  9693,  9694,  9695,  9696,  9697,  9698,  9699,  9700,  9701,  9702,  9703,  9704,  9705,  9706
  9707,  9708,  9709,  9710,  9711,  9712,  9713,  9714,  9715,  9716,  9717,  9718,  9719,  9720,  9721,  9722
  9723,  9724,  9725,  9726,  9727,  9728,  9729,  9730,  9731,  9732,  9733,  9734,  9735,  9736,  9737,  9738
  9739,  9740,  9741,  9742,  9743,  9744,  9745,  9746,  9747,  9748,  9749,  9750,  9751,  9752,  9753,  9754
  9755,  9756,  9757,  9758,  9759,  9760,  9761,  9762,  9763,  9764,  9765,  9766,  9767,  9768,  9769,  9770
  9771,  9772,  9773,  9774,  9775,  9776,  9777,  9778,  9779,  9780,  9781,  9782,  9783,  9784,  9785,  9786
  9787,  9788,  9789,  9790,  9791,  9792,  9793,  9794,  9795,  9796,  9797,  9798,  9799,  9800,  9801,  9802
  9803,  9804,  9805,  9806,  9807,  9808,  9809,  9810,  9811,  9812,  9813,  9814,  9815,  9816,  9817,  9818
  9819,  9820,  9821,  9822,  9823,  9824,  9825,  9826,  9827,  9828,  9829,  9830,  9831,  9832,  9833,  9834
  9835,  9836,  9837,  9838,  9839,  9840,  9841,  9842,  9843,  9844,  9845,  9846,  9847,  9848,  9849,  9850
  9851,  9852,  9853,  9854,  9855,  9856,  9857,  9858,  9859,  9860,  9861,  9862,  9863,  9864,  9865,  9866
  9867,  9868,  9869,  9870,  9871,  9872,  9873,  9874,  9875,  9876,  9877,  9878,  9879,  9880,  9881,  9882
  9883,  9884,  9885,  9886,  9887,  9888,  9889,  9890,  9891,  9892,  9893,  9894,  9895,  9896,  9897,  9898
  9899,  9900,  9901,  9902,  9903,  9904,  9905,  9906,  9907,  9908,  9909,  9910,  9911,  9912,  9913,  9914
  9915,  9916,  9917,  9918,  9919,  9920,  9921,  9922,  9923,  9924,  9925,  9926,  9927,  9928,  9929,  9930
  9931,  9932,  9933,  9934,  9935,  9936,  9937,  9938,  9939,  9940,  9941,  9942,  9943,  9944,  9945,  9946
  9947,  9948,  9949,  9950,  9951,  9952,  9953,  9954,  9955,  9956,  9957,  9958,  9959,  9960,  9961,  9962
** ... 149 like lines cut
*Elset, elset=_OutPlane_S1, internal
   193,   194,   195,   196,   197,   198,   199,   200,   201,   202,   203,   204,   205,   206,   207,   208
   209,   210,   211,   212,   213,   214,   215,   216,   217,   218,   219,   220,   221,   222,   223,   224
   225,   226,   227,   228,   229,   230,   231,   232,   233,   234,   235,   236,   237,   238,   239,   240
   241,   242,   243,   244,   245,   246,   247,   248,   249,   250,   251,   252,   253,   254,   255,   256
   257,   258,   259,   260,   261,   262,   263,   264,   265,   266,   267,   268,   269,   270,   271,   272
   273,   274,   275,   276,   277,   278,   279,   280,   281,   282,   283,   284,   285,   286,   287,   288
   289,   290,   291,   292,   293,   294,   295,   296,   297,   298,   299,   300,   301,   302,   303,   304
   305,   306,   307,   308,   309,   310,   311,   312,   313,   314,   315,   316,   317,   318,   319,   320
   321,   322,   323,   324,   325,   326,   327,   328,   329,   330,   331,   332,   333,   334,   335,   336
   337,   338,   339,   340,   341,   342,   343,   344,   345,   346,   347,   348,   349,   350,   351,   352
   353,   354,   355,   356,   357,   358,   359,   360,   361,   362,   363,   364,   365,   366,   367,   368
   369,   370,   371,   372,   373,   374,   375,   376,   377,   378,   379,   380,   381,   382,   383,   384
   385,   386,   387,   388,   389,   390,   391,   392,   393,   394,   395,   396,   397,   398,   399,   400
   401,   402,   403,   404,   405,   406,   407,   408,   409,   410,   411,   412,   413,   414,   415,   416
   417,   418,   419,   420,   421,   422,   423,   424,   425,   426,   427,   428,   429,   430,   431,   432
   433,   434,   435,   436,   437,   438,   439,   440,   441,   442,   443,   444,   445,   446,   447,   448
   449,   450,   451,   452,   453,   454,   455,   456,   457,   458,   459,   460,   461,   462,   463,   464
   465,   466,   467,   468,   469,   470,   471,   472,   473,   474,   475,   476,   477,   478,   479,   480
   481,   482,   483,   484,   485,   486,   487,   488,   489,   490,   491,   492,   493,   494,   495,   496
   497,   498,   499,   500,   501,   502,   503,   504,   505,   506,   507,   508,   509,   510,   511,   512
** ... 149 like lines cut
*Surface, type=ELEMENT, name=OutPlane
_OutPlane_S2, S2
_OutPlane_S1, S1
** Section: M7
*Solid Section, elset=Body, material=M7FMATERIAL
,
** Section: PLASTIC
*Shell Section, elset=_PickedSet56, material=PLASTIC
5., 5
*End Part
**  
*Part, name=Fixture
*Node
      1,           0.,   25.3999996,           0.
      2,           0.,   25.3999996,   9.76923084
      3,           0.,   25.3999996,   19.5384617
      4,           0.,   25.3999996,   29.3076916
      5,           0.,   25.3999996,   39.0769234
      6,           0.,   25.3999996,   48.8461533
      7,           0.,   25.3999996,   58.6153831
      8,           0.,   25.3999996,    68.384613
      9,           0.,   25.3999996,   78.1538467
     10,           0.,   25.3999996,   87.9230804
     11,           0.,   25.3999996,   97.6923065
     12,           0.,   25.3999996,    107.46154
     13,           0.,   25.3999996,   117.230766
     14,           0.,   25.3999996,         127.
     15,   8.46666622,   25.3999996,           0.
     16,   8.46666622,   25.3999996,   9.76923084
     17,   8.46666622,   25.3999996,   19.5384617
     18,   8.46666622,   25.3999996,   29.3076916
     19,   8.46666622,   25.3999996,   39.0769234
     20,   8.46666622,   25.3999996,   48.8461533
** ... 372 like lines cut
*Element, type=C3D8R
  1,  99, 100, 114, 113,   1,   2,  16,  15
  2, 100, 101, 115, 114,   2,   3,  17,  16
  3, 101, 102, 116, 115,   3,   4,  18,  17
  4, 102, 103, 117, 116,   4,   5,  19,  18
  5, 103, 104, 118, 117,   5,   6,  20,  19
  6, 104, 105, 119, 118,   6,   7,  21,  20
  7, 105, 106, 120, 119,   7,   8,  22,  21
  8, 106, 107, 121, 120,   8,   9,  23,  22
  9, 107, 108, 122, 121,   9,  10,  24,  23
 10, 108, 109, 123, 122,  10,  11,  25,  24
 11, 109, 110, 124, 123,  11,  12,  26,  25
 12, 110, 111, 125, 124,  12,  13,  27,  26
 13, 111, 112, 126, 125,  13,  14,  28,  27
 14, 113, 114, 128, 127,  15,  16,  30,  29
 15, 114, 115, 129, 128,  16,  17,  31,  30
 16, 115, 116, 130, 129,  17,  18,  32,  31
 17, 116, 117, 131, 130,  18,  19,  33,  32
 18, 117, 118, 132, 131,  19,  20,  34,  33
 19, 118, 119, 133, 132,  20,  21,  35,  34
 20, 119, 120, 134, 133,  21,  22,  36,  35
** ... 214 like lines cut
*Node
    393,   25.3999996,   25.3999996,         127.
*Nset, nset=Fixture-RefPt_, internal
393, 
*Nset, nset=Body, generate
   1,  392,    1
*Elset, elset=Body, generate
   1,  234,    1
*Nset, nset=Fixed, generate
  1,  98,   1
*Elset, elset=Fixed, generate
  1,  78,   1
*Nset, nset=RP
 393,
*Nset, nset=Line, generate
 43,  56,   1
*Elset, elset=Line, generate
 27,  52,   1
*Elset, elset=_Contact_S1, internal, generate
 157,  234,    1
*Surface, type=ELEMENT, name=Contact
_Contact_S1, S1
** Section: STEEL
*Solid Section, elset=Body, material=STEEL
,
*End Part
**  
*Part, name=Support
*Node
      1,    23.776413,   7.72542477,           0.
      2,   20.2254257,   14.6946316,           0.
      3,   14.6946316,   20.2254257,           0.
      4,   7.72542477,    23.776413,           0.
      5,           0.,          25.,           0.
      6,  -7.72542477,    23.776413,           0.
      7,  -14.6946316,   20.2254257,           0.
      8,  -20.2254257,   14.6946316,           0.
      9,   -23.776413,   7.72542477,           0.
     10,          25.,           0.,           0.
     11,         -25.,           0.,           0.
     12,    16.666666,           0.,           0.
     13,   8.33333302,           0.,           0.
     14,           0.,           0.,           0.
     15,  -8.33333302,           0.,           0.
     16,   -16.666666,           0.,           0.
     17,   11.7373667,   17.2375393,           0.
     18,  -10.2948618,   13.4027014,           0.
     19,   13.1985102,   12.7551346,           0.
     20,  -2.76508522,   15.3113146,           0.
** ... 560 like lines cut
*Element, type=C3D8R
  1,  25,  12,  10,   1,  54,  41,  39,  30
  2,  26,  23,  20,  18,  55,  52,  49,  47
  3,   7,  18,  20,   6,  36,  47,  49,  35
  4,  19,  17,  27,  21,  48,  46,  56,  50
  5,  24,  21,  20,  23,  53,  50,  49,  52
  6,  13,  24,  23,  14,  42,  53,  52,  43
  7,   2,   3,  17,  19,  31,  32,  46,  48
  8,  21,  24,  25,  19,  50,  53,  54,  48
  9,   1,   2,  19,  25,  30,  31,  48,  54
 10,  29,  16,  15,  26,  58,  45,  44,  55
 11,   8,  22,  18,   7,  37,  51,  47,  36
 12,  18,  22,  29,  26,  47,  51,  58,  55
 13,  11,  16,  29,   9,  40,  45,  58,  38
 14,  27,  17,   3,   4,  56,  46,  32,  33
 15,  20,  28,   5,   6,  49,  57,  34,  35
 16,  12,  25,  24,  13,  41,  54,  53,  42
 17,  27,  28,  20,  21,  56,  57,  49,  50
 18,   5,  28,  27,   4,  34,  57,  56,  33
 19,  26,  15,  14,  23,  55,  44,  43,  52
 20,  22,   8,   9,  29,  51,  37,  38,  58
** ... 360 like lines cut
*Nset, nset=Body, generate
   1,  580,    1
*Elset, elset=Body, generate
   1,  380,    1
*Nset, nset=Fixed
  10,  11,  12,  13,  14,  15,  16,  39,  40,  41,  42,  43,  44,  45,  68,  69
  70,  71,  72,  73,  74,  97,  98,  99, 100, 101, 102, 103, 126, 127, 128, 129
 130, 131, 132, 155, 156, 157, 158, 159, 160, 161, 184, 185, 186, 187, 188, 189
 190, 213, 214, 215, 216, 217, 218, 219, 242, 243, 244, 245, 246, 247, 248, 271
 272, 273, 274, 275, 276, 277, 300, 301, 302, 303, 304, 305, 306, 329, 330, 331
 332, 333, 334, 335, 358, 359, 360, 361, 362, 363, 364, 387, 388, 389, 390, 391
 392, 393, 416, 417, 418, 419, 420, 421, 422, 445, 446, 447, 448, 449, 450, 451
 474, 475, 476, 477, 478, 479, 480, 503, 504, 505, 506, 507, 508, 509, 532, 533
 534, 535, 536, 537, 538, 561, 562, 563, 564, 565, 566, 567
*Elset, elset=Fixed
   1,   6,  10,  13,  16,  19,  21,  26,  30,  33,  36,  39,  41,  46,  50,  53
  56,  59,  61,  66,  70,  73,  76,  79,  81,  86,  90,  93,  96,  99, 101, 106
 110, 113, 116, 119, 121, 126, 130, 133, 136, 139, 141, 146, 150, 153, 156, 159
 161, 166, 170, 173, 176, 179, 181, 186, 190, 193, 196, 199, 201, 206, 210, 213
 216, 219, 221, 226, 230, 233, 236, 239, 241, 246, 250, 253, 256, 259, 261, 266
 270, 273, 276, 279, 281, 286, 290, 293, 296, 299, 301, 306, 310, 313, 316, 319
 321, 326, 330, 333, 336, 339, 341, 346, 350, 353, 356, 359, 361, 366, 370, 373
 376, 379
*Elset, elset=_Contact_S5, internal
   1,  14,  15,  21,  34,  35,  41,  54,  55,  61,  74,  75,  81,  94,  95, 101
 114, 115, 121, 134, 135, 141, 154, 155, 161, 174, 175, 181, 194, 195, 201, 214
 215, 221, 234, 235, 241, 254, 255, 261, 274, 275, 281, 294, 295, 301, 314, 315
 321, 334, 335, 341, 354, 355, 361, 374, 375
*Elset, elset=_Contact_S6, internal
   3,  11,  13,  18,  23,  31,  33,  38,  43,  51,  53,  58,  63,  71,  73,  78
  83,  91,  93,  98, 103, 111, 113, 118, 123, 131, 133, 138, 143, 151, 153, 158
 163, 171, 173, 178, 183, 191, 193, 198, 203, 211, 213, 218, 223, 231, 233, 238
 243, 251, 253, 258, 263, 271, 273, 278, 283, 291, 293, 298, 303, 311, 313, 318
 323, 331, 333, 338, 343, 351, 353, 358, 363, 371, 373, 378
*Elset, elset=_Contact_S3, internal
   7,   9,  27,  29,  47,  49,  67,  69,  87,  89, 107, 109, 127, 129, 147, 149
 167, 169, 187, 189, 207, 209, 227, 229, 247, 249, 267, 269, 287, 289, 307, 309
 327, 329, 347, 349, 367, 369
*Elset, elset=_Contact_S4, internal, generate
  20,  380,   20
*Surface, type=ELEMENT, name=Contact
_Contact_S5, S5
_Contact_S6, S6
_Contact_S4, S4
_Contact_S3, S3
** Section: STEEL
*Solid Section, elset=Body, material=STEEL
,
*End Part
**  
**
** ASSEMBLY
**
*Assembly, name=Assembly
**  
*Instance, name=Beam-1, part=Beam
*End Instance
**  
*Instance, name=Fixture-1, part=Fixture
       317.5,        165.1,        -15.4
*End Instance
**  
*Instance, name=Fixture-2, part=Fixture
       380.3,        165.1,        -15.4
*End Instance
**  
*Instance, name=Support-1, part=Support
-6.69999999999998,        -63.2,        -23.4
*End Instance
**  
*Instance, name=Support-2, part=Support
       755.3,        -63.2,        -23.4
*End Instance
**  
** Constraint: Constraint-1
*Equation
2
Fixture-1.Line, 1, 1.
Fixture-1.RP, 1, -1.
** Constraint: Constraint-2
*Equation
2
Fixture-1.Line, 2, 1.
Fixture-1.RP, 2, -1.
** Constraint: Constraint-3
*Equation
2
Fixture-1.Line, 3, 1.
Fixture-1.RP, 3, -1.
** Constraint: Constraint-4
*Equation
2
Fixture-2.Line, 1, 1.
Fixture-2.RP, 1, -1.
** Constraint: Constraint-5
*Equation
2
Fixture-2.Line, 2, 1.
Fixture-2.RP, 2, -1.
** Constraint: Constraint-6
*Equation
2
Fixture-2.Line, 3, 1.
Fixture-2.RP, 3, -1.
*End Assembly
*Amplitude, name=Amp-1, definition=SMOOTH STEP
             0.,              0.,            0.15,              1.
*Amplitude, name=Amp-2, definition=SMOOTH STEP
             0.,              0.,            0.03,              1.
** 
** MATERIALS
** 
*Material, name=M7FMATERIAL
*Density
 2.4e-09,
*Depvar, delete=188
    199,
*User Material, constants=1
0.,
*Material, name=PLASTIC
*Density
 2.5e-09,
*Elastic
20000., 0.3
*Material, name=STEEL
*Density
 7.5e-09,
*Elastic
50000., 0.3
** 
** INTERACTION PROPERTIES
** 
*Surface Interaction, name=IntProp-1
*Friction
 0.05,
*Surface Behavior, pressure-overclosure=HARD
** 
** BOUNDARY CONDITIONS
** 
** Name: BC-1 Type: Displacement/Rotation
*Boundary
Support-1.Fixed, 1, 1
Support-1.Fixed, 2, 2
Support-1.Fixed, 3, 3
Support-1.Fixed, 4, 4
Support-1.Fixed, 5, 5
Support-1.Fixed, 6, 6
** Name: BC-2 Type: Displacement/Rotation
*Boundary
Support-2.Fixed, 1, 1
Support-2.Fixed, 2, 2
Support-2.Fixed, 3, 3
Support-2.Fixed, 4, 4
Support-2.Fixed, 5, 5
Support-2.Fixed, 6, 6
** ----------------------------------------------------------------
** 
** STEP: Step-1
** 
*Step, name=Step-1, nlgeom=NO
*Dynamic, Explicit
, 0.03
*Bulk Viscosity
2.4, 24.
** 
** BOUNDARY CONDITIONS
** 
** Name: BC-3 Type: Displacement/Rotation
*Boundary, amplitude=Amp-1
Fixture-1.RP, 1, 1
Fixture-1.RP, 2, 2
Fixture-1.RP, 3, 3
Fixture-1.RP, 4, 4
Fixture-1.RP, 5, 5
Fixture-1.RP, 6, 6
** Name: BC-4 Type: Displacement/Rotation
*Boundary, amplitude=Amp-1
Fixture-2.RP, 1, 1
Fixture-2.RP, 2, 2
Fixture-2.RP, 3, 3
Fixture-2.RP, 4, 4
Fixture-2.RP, 5, 5
Fixture-2.RP, 6, 6
** 
** LOADS
** 
** Name: Load-1   Type: Pressure
*Dsload, amplitude=Amp-2
Beam-1.Pressed, P, 10.0301
** Name: Load-2   Type: Pressure Using Field: AnalyticalField-1
*Dload, amplitude=Amp-2
Beam-1.9643, P2, 0.0001
Beam-1.9644, P2, 0.0001
Beam-1.9645, P2, 0.0001
Beam-1.9646, P2, 0.0001
Beam-1.9647, P2, 3.89266e-05
Beam-1.9648, P2, 0.0001
Beam-1.9649, P2, 0.0001
Beam-1.9650, P2, 0.0001
Beam-1.9651, P2, 0.0001
Beam-1.9652, P2, 0.0001
Beam-1.9653, P2, 0.0001
Beam-1.9654, P2, 0.0001
Beam-1.9655, P2, 0.0001
Beam-1.9656, P2, 0.0001
Beam-1.9657, P2, 0.0001
Beam-1.9658, P2, 0.0001
Beam-1.9659, P2, 0.0001
Beam-1.9660, P2, 0.0001
Beam-1.9661, P2, 0.0001
Beam-1.9662, P2, 2.8574e-05
** ... 5376 like lines cut
** 
** INTERACTIONS
** 
** Interaction: Int-1
*Contact Pair, interaction=IntProp-1, mechanical constraint=KINEMATIC, cpset=Int-1
Fixture-1.Contact, Beam-1.Top
** Interaction: Int-2
*Contact Pair, interaction=IntProp-1, mechanical constraint=KINEMATIC, cpset=Int-2
Fixture-2.Contact, Beam-1.Top
** Interaction: Int-3
*Contact Pair, interaction=IntProp-1, mechanical constraint=KINEMATIC, cpset=Int-3
Support-1.Contact, Beam-1.BottomLeft
** Interaction: Int-4
*Contact Pair, interaction=IntProp-1, mechanical constraint=KINEMATIC, cpset=Int-4
Support-2.Contact, Beam-1.BottomRight
** 
** OUTPUT REQUESTS
** 
*Restart, write, number interval=1, time marks=NO
** 
** FIELD OUTPUT: F-Output-1
** 
*Output, field, number interval=30
*Node Output
A, RF, U, V
*Element Output, directions=YES
EVF, LE, PE, PEEQ, S
*Contact Output
CSTRESS, 
** 
** HISTORY OUTPUT: H-Output-1
** 
*Output, history
*Energy Output
ALLIE, ALLKE, ETOTAL
*End Step
** ----------------------------------------------------------------
** 
** STEP: Step-2
** 
*Step, name=Step-2, nlgeom=NO
*Dynamic, Explicit
, 0.15
*Bulk Viscosity
2.4, 24.
** 
** BOUNDARY CONDITIONS
** 
** Name: BC-3 Type: Displacement/Rotation
*Boundary, amplitude=Amp-1
Fixture-1.RP, 2, 2, -15.
** Name: BC-4 Type: Displacement/Rotation
*Boundary, amplitude=Amp-1
Fixture-2.RP, 2, 2, -15.
** 
** OUTPUT REQUESTS
** 
*Restart, write, number interval=1, time marks=NO
** 
** FIELD OUTPUT: F-Output-1
** 
*Output, field, number interval=200
*Node Output
A, RF, U, V
*Element Output, directions=YES
EVF, LE, PE, PEEQ, S
*Contact Output
CSTRESS, 
** 
** HISTORY OUTPUT: H-Output-1
** 
*Output, history
*Energy Output
ALLIE, ALLKE, ETOTAL
** 
** HISTORY OUTPUT: H-Output-3
** 
*Node Output, nset=Beam-1.COD
U1, 
** 
** HISTORY OUTPUT: H-Output-2
** 
*Node Output, nset=Fixture-1.RP
RF2, U2
** 
** HISTORY OUTPUT: H-Output-4
** 
*Node Output, nset=Fixture-2.RP
RF2, U2
*End Step
